src/test/resources/bpafiles/示范区BPA运行方式/XIAOJIN.DAT
(POWERFLOW,CASEID=WW3,PROJECT=PROJECT)
/MVA_BASE=100.00\
/NEW_BASE,FILE=88000007.BSE\
/P_OUTPUT_LIST,FULL\                                          
/P_ANALYSIS_RPT,LEVEL=4\                
/NETWORK_DATA\
.
.平衡机取外部电网等值节点
.外部等值机联结小金等效阻抗通过FDS戴维南等值得出
.春厂、杨家、木坡采用实测参数
.
.
......小金与外部电网功率交换卡 送出339MW    251
A  DZ        等值    220.          DZ
A  XJ        春厂13  10.           ZB JL
...............
I  XJ         DZ          339.    
................




.补充小南海50MW，中环20MW*2
B     小南海11110 ZB              
BQ    小南海3535. ZB        
T     小南海3535.  小南海040.4    105 .00590.06297            35.  .40
B     小南海040.4 ZB                  50. 50.            1.04
T     小南海11110. 小南海3535. 1 50.  .00545.125  .00003.000221100035.                   
L     美兴110 110. 小南海11110 1 222  .0005 .0019


B     中环A11 110 ZB           
BQ    中环A35 35. ZB     
T     中环A35 35.  中环A04 0.4   42   .00590.06297            35.  .40
B     中环A04 0.4 ZB                  20  20             1.04
T     中环A11 110. 中环A35 35. 1 20   .00545.125  .00003.000221100035. 
L     美兴110 110. 中环A11 110 1 222  .0005 .0019

B     中环B11 110 ZB           
BQ    中环B35 35. ZB     
T     中环B35 35.  中环B04 0.4   42   .00590.06297            35.  .40
B     中环B04 0.4 ZB                  20  20             1.04
T     中环B11 110. 中环B35 35. 1 20   .00545.125  .00003.000221100035. 
L     小南海11 110  中环B11 110 1 222  .0005 .001



...............
BQ    美沃63  6.3 ZB                  7.5 7.5  4.291-1.8 .99                      
B     城东10  10. ZB1.4  .8                                                     
B     花牛口3535. ZB                                                            
BQ    海平63  6.3 ZB                  6.4 6.4  1.5  -1.6 1.01                      
BQ    崇德04  6.3 ZB                  .5  .5   .048 -.1  1.                     
BQ    河口63  6.3 ZB                  4.  4.   1.39 -1.  1.01                       
BQ    中马63  6.3 ZB                  20. 20.  12.2 -5.  1.                       
B     T101    35. ZB                                                            
BQ    结马63  6.3 ZB                  20. 20.  13.72-5.  1.                       
B     T102    35. ZB                                                            
B     宅垄10  10. ZB2.8  1.7                                                    
B     T103    35. ZB                                                            
B     T104    35. ZB                                                            
B     海平10  10. ZB                                                            
B     春厂22  220.ZB                                                            
B     丹巴22  220.ZB                                               
BS    等值    220.DZ                                     1.
L     等值    220. 丹巴22  220.       .0113 .0692
.L     等值    220. 丹巴22  220.      

BQ    广金10  10. ZB                  20. 20.  9.07 -4.  1.07                      
B     春厂101 10. ZB                             
BQ    春厂11  10. ZB                  18. 18.  6.146-3.5 1.03
BQ    春厂12  10. ZB                  18. 18.  6.146-3.5 1.03
L     春厂12  10.  春厂101 10.              .00001
L     春厂11  10.  春厂101 10.              .00001   

B     春厂102 10. ZB                                                     
BQ    春厂13  10. ZB                  18. 18.  6.146-3.5 1.02              
L     春厂13  10.  春厂102 10.              .00001                         
                                

B     小金11  110.ZB     
B     小金11K 110.ZB  
L     小金11  110. 小金11K 110.             .00001
                                                       
B     城东10A 10. ZB1.4  .5                                                     
BQ    猛固101 10. ZB                  12. 12.  6.09 -3.  1.01


B     猛固10  10. ZB                                                  
BQ    猛固102 10. ZB                  12. 12.  6.09 -3.  1.02                       
BQ    猛固103 10. ZB                  24. 12.  10.87-6.  1.02                      
L     猛固10  10.  猛固102 10.              .00001       
L     猛固10  10.  猛固103 10.              .00001       




B     三关10  10. ZB                                                            
B     小金22  220.ZB                                                            
B     崇德10  10. ZB                                                            
B     猛固110 110.ZB                                                            
B     美兴110 110.ZB                                                            
BQ    三关63  6.3 ZB                  4.8 4.8  3.03 -1.2 1.01                     
BQ    美兴35  35. ZB          
T     美兴35  35.  美兴04  0.4    105 .00590.06297            35.  .40 
B     美兴04  0.4 ZB                  50. 50.            1.04




B     花牛10  10. ZB5.7  3.4                                                    
B     河口10  10. ZB                                                            
B     园艺110 110.ZB                                                            
B     广金110 110.ZB                                                            
B     木龙10  10. ZB2.9  1.7                                            
B     嘉铝35  35. JL18.3 11.                                                 
B     木龙35  35. ZB                                                            
B     美沃35  35. ZB                                                            
B     木龙35A 35. ZB                                                            
B     园艺35  35. ZB1.8  1.08                                                   




B     中马110 110.ZB                                                            
B     官家河11110.ZB                                                            
B     官家河3535. ZB19.8 11.9                                                   
B     结马110 110.ZB                                                            
B     何家桥3535. ZB                                                            
BQ    何家桥636.3 ZB                  4.  4.   .9942-1.  1.03                     
B     官家35A 35. ZB19.8 11.9                                                   
B     宅垄35  35. ZB                                                            
B     城东35  35. ZB                                                            
B     木龙10A 10. ZB1.4  .9                                               
B     杨家湾22220.ZB                                                            
B     木坡22  220.ZB                                                            
B     木坡10  10. ZB                                
BQ    木坡101 10. ZB                  15. 15.  6.269-3.  1.03
BQ    木坡102 10. ZB                  15. 15.  6.269-3.  1.03
L     木坡101 10.  木坡10  10.              .00001             
L     木坡102 10.  木坡10  10.              .00001             


B     达维35  35. ZB                                                            
B     达维10  10. ZB3.6  2.2                                                    
B     夹金山3535. ZB                                                           
BQ    夹金山636.3 ZB                  4.4 4.4  3.3  -1.1 1.07                                          
BQ    夹金6A  6.3 ZB                  2.5 2.5  1.85 -1.1 1.07                                                
B     日隆35  35. ZB1.8  .8                                                     
B     日尔寨3535. ZB                                                            
BQ    日尔寨1010. ZB                  10. 10.  -1.05-2.5 1.07                    
B     结斯35  35. ZB                                                            
B     下马35  35. ZB                                                            
B     结斯10  10. ZB2.8  1.7                                                    
B     下马10  10. ZB3.6  2.2                                                    
BQ    杨家11  10. ZB                  20. 20.  5.735-5.  1.03                      
BQ    杨家12  10. ZB                  20. 20.  5.735-5.  1.03                      
BQ    杨家13  10. ZB                  20. 20.  5.735-5.  1.03                      
BQ    木坡3   10. ZB                  15. 15.  6.269-3.  1.03                      

B     9200008010. ZB  
B     9200008710. ZB                                     
B     9200008810. ZB                                     
B     9200009010. ZB                                     

L     杨家11  10.  9200008010.              .00001    
L     杨家12  10.  9200008710.              .00001    
L     杨家13  10.  9200008810.              .00001    
L     木坡3   10.  9200009010.              .00001    



L     T102    35.  下马35  35. 1 2222 .0044 .0062                               
L     夹金山3535.  达维35  35. 1 2222 .035  .039                                
L     T103    35.  园艺35  35. 1 2222 .176  .247                                
L     T102    35.  花牛口3535. 1 2222 .2094 .2939                               
L     日隆35  35.  T103    35. 1 2222 .551  .773                                
L     丹巴22  220. 小金22  220.1 222. .0043 .03499                              
L     杨家湾22220. 木坡22  220.1 2222 .0021 .0119                               
L     花牛口3535.  T104    35. 1 2222 .03396.10135                              
L     杨家湾22220. 小金22  220.1 222. .0019 .0106                               
L     猛固110 110. 官家河11110.1 222. .023  .0705                               
L     T104    35.  美沃35  35. 1 2222 .1    .1                                  
L     T104    35.  嘉铝35  35. 1 2222 .026  .0776                               
L     美沃35  35.  城东35  35. 1 2222 .1131 .1262                               
L     城东10  10.  三关10  10. 1 2222 .1    .1                                  
L     T103    35.  达维35  35. 1 2222 .0044 .00618                              
L     猛固110 110. 小金11  110.1 222. .0007 .0021                               
L     城东35  35.  木龙35  35. 1 2222 .6171 .8862                               
L     小金11  110. 美兴110 110.1 222. .0005 .0019                               
L     广金110 110. 园艺110 110.1 222. .0154 .0464                               
L     T101    35.  园艺35  35. 1 2222 .264  .371                                
L     结斯35  35.  园艺35  35. 1 2222 .334  .372                                
L     日尔寨3535.  园艺35  35. 1 2222 .073  .1303                               
L     小金22  220. 春厂22  220.1 999. .0004 .0019                               
L     丹巴22  220. 小金22  220.2 222. .0043 .03499                              
L     城东10A 10.  河口10  10. 1 2222 .2    .1                                  
L     城东10A 10.  海平10  10. 1 2222 .2    .1                                  
L     崇德10  10.  城东10A 10. 1 2222 .2    .1                                  
L     木龙35  35.  木龙35A 35. 1 2222 .7543 .8411                               
L     T104    35.  官家河3535. 1 2222 .1231 .3674                               
L     官家河3535.  宅垄35  35. 1 2222 .2116 .297                                
L     中马110 110. 结马110 110.1 2222 .0042 .0098                               
L     官家河11110. 结马110 110.1 2222 .0268 .0802                               
L     何家桥3535.  官家35A 35. 1 2222 .1212 .1352                               
L     T102    35.  T101    35. 1 2222 .1542 .2165                               
T     木坡22  220. 木坡10  10. 1 40.  .00545.125  .00003.000222200010.          
T     猛固110 110. 猛固101 10. 1 16.  .00464.1025 .00003.000221100010.  
T     小金22  220. 小金11  110.1 200. .00545.125  .00003.000222200011000        
T     春厂22  220. 春厂102 10. 1 25.  .00545.125  .00003.000222200010.          
T     中马110 110. 中马63  6.3 1 20.  .00545.125  .00003.00022110006.3          
T     春厂22  220. 春厂101 10. 1 50.  .00545.125  .00003.000222200010.          
T     杨家湾22220. 9200008010. 1 30.  .00545.125  .00003.000222200010.          
T     杨家湾22220. 9200008710. 1 30.  .00545.125  .00003.000222200010.          
T     杨家湾22220. 9200008810. 1 30.  .00545.125  .00003.000222200010.          
T     木坡22  220. 9200009010. 1 40.  .00545.125  .00003.000222200010.          
T     官家河11110. 官家河3535. 1 50.  .00545.125  .00003.000221100035.          
T     猛固110 110. 猛固10  10. 1 31.  .00409.1027 .00003.000221100010.
T     美兴110 110. 美兴35  35. 1 50.  .00545.125  .00003.000221100035.          
T     广金110 110. 广金10  10. 1 20.  .00545.125  .00003.000221100010.          
T     园艺110 110. 园艺35  35. 1 40.  .00545.125  .00003.000221100035.          
T     结马110 110. 结马63  6.3 1 20.  .00545.125  .00003.00022110006.3          
T     官家河11110. 官家35A 35. 1 50.  .00545.125  .00003.000221100035.          
T     何家桥3535.  何家桥636.3 1 4.   .00545.125  .00003.0002235.  6.3          
T     达维35  35.  达维10  10. 1 4.   .00545.125  .00003.0002235.  10.          
T     夹金山3535.  夹金6A  6.3 1 2.5  .00545.125  .00003.0002235.  6.3          
T     夹金山3535.  夹金山636.3 1 5.   .00545.125  .00003.0002235.  6.3          
T     日尔寨3535.  日尔寨1010. 1 10.  .00545.125  .00003.0002235.  10.          
T     结斯35  35.  结斯10  10. 1 3.3  .00545.125  .00003.0002235.  10.          
T     下马35  35.  下马10  10. 1 4.   .00545.125  .00003.0002235.  10.          
T     花牛口3535.  花牛10  10. 1 6.3  .00545.125  .00003.0002235.  10.          
T     海平10  10.  海平63  6.3 1 5.   .00545.125  .00003.0002210.  6.3          
T     美沃35  35.  美沃63  6.3 1 8.   .00545.125  .00003.0002235.  6.3          
T     城东35  35.  城东10  10. 1 5.   .00545.125  .00003.0002235.  10.          
T     三关10  10.  三关63  6.3 1 2.   .00545.125  .00003.0002210.  6.3          
T     崇德10  10.  崇德04  6.3 1 .5   .00545.125  .00003.0002210.  6.3  
T     城东35  35.  城东10A 10. 1 5.   .00545.125  .00003.0002235.  10.          
T     河口10  10.  河口63  6.3 1 5.   .00545.125  .00003.0002210.  6.3          
T     木龙35  35.  木龙10  10. 1 20.  .00545.125  .00003.0002235.  10.          
T     木龙35A 35.  木龙10A 10. 1 20.  .00545.125  .00003.0002235.  10.          
T     宅垄35  35.  宅垄10  10. 1 200. .00545.125  .00003.0002235.  10.          
(END)
