src/test/resources/bpafiles/示范区BPA运行方式/XIAOJIN.OUT
                                                      * * * 输 入 和 初 始 化 信 息 * * *                      Date: 2019-04-05

ENTERING ROUTINE SWINGM
     PSD-BPA暂态稳定程序
     版本号  : 5.1.5 @ PSD
     编译时间: 2018-04-8 22:39:59
CASE WW3        1     1
---- ----------    -    --------- --------
ENTERING ROUTINE TAPEWK
  POWER FLOW CASE ( WW3        ) IS BEING PROCESSED.
ENTERING ROUTINE INPUT1
  SWING CASE XIAOJIN    EXECUTED ON 2019-04-05 USING VERSION 5.1.5 @ PSD
  POWER FLOW CASE(WW3       ) EXECUTED ON 2019-04-02
INPUT DATA CARDS
FLT 小金11  110. 小金11K 110.  1    2 10  5.  5.
FF  0.  0.5 900.                                         1 1   3   1
ILIM       =         25
TOLI       =  0.0100000
START TIME =       0.00
DELTA TIME =       0.50
END   TIME =     900.00
DELANG     =  0.0017450
DCITOL     =  8.0000000
DMPMLT     =  1.0000000
DTC        =  0.5000000
ISTP       =         15
BASE HZ    =      50.00
ENTERING ROUTINE INPUT1
SUBROUTINE INPUT1 HAS BEEN PROCESSED.
ENTERING ROUTINE INPUT2
*** WARNING   稳定数据中的零序数据XO\XR\LO\LO+\LM，如果潮流没有对应支路或节点，将自动删除。（DEBUG卡49列填1可显示详细提示信息）
SUBROUTINE INPUT2 HAS BEEN PROCESSED.
ENTERING ROUTINE INPUT3
*** WARNING   稳定数据中的发电机、马达，如果潮流中有功出力为0或不存在，将自动删除。（DEBUG卡48列填1可显示详细提示信息）
*** WARNING   发电机"等值     220.0 "是无穷大节点。
*** WARNING   G  崇德04   .4     3  3  3        3  3     3     3        3                    1
*** WARNING   该数据卡中的节点"崇德04     0.40"不存在。
*** WARNING   G  崇德04   .4     3  3  3        3  3     3     3        3                    1
*** WARNING   该卡中的发电机不存在。
*** WARNING   G  美兴35   35.    3  3  3        3  3     3     3        3                    1
*** WARNING   该卡中的发电机不存在。
ENTERING ROUTINE INITL1
SUBROUTINE INITL1 HAS BEEN PROCESSED.
ENTERING ROUTINE INITL2
ENTERING ROUTINE FORM_NEG_NETWORK_MATRIX
ENTERING ROUTINE FORM_ZERO_NETWORK_MATRIX
SUBROUTINE I N I T L 2 HAS BEEN PROCESSED
ENTERING ROUTINE INITL3
ENTERING ROUTINE INITL4
初始状态，共包含  1个同步网络（前5个节点）：
网络 1：  92000080  10.0  杨家11    10.0  杨家湾22 220.0  92000087  10.0  92000088  10.0


SWING CASE: XIAOJIN    POWERFLOW CASE: WW3                 * * *  计 算 过 程 信 息  * * *                     Date: 2019-04-05

 SOLN IN           1
 SOLN OUT           2
ENTERING ROUTINE REDUCE
 SOLN IN           3
 SOLN OUT           2
ENTERING ROUTINE REDUCE
 SOLN IN           2
 SOLN OUT           1
 CNTRL IN
 CNTRL OUT           2
ENTERING ROUTINE REDUCE
 CNTRL IN
 CNTRL OUT           2
     15.0周波，支路"小金11K  110.0 小金11   110.0  "断开。
  15.0周波，共包含  2个同步网络（前5个节点）：
      网络 1：  92000080  10.0  杨家11    10.0  杨家湾22 220.0  92000087  10.0  92000088  10.0
      网络 2：  小金11K  110.0
ENTERING ROUTINE REDUCE
 CNTRL IN
计算时间达到，稳定计算完毕。
总的迭代次数为 5400
 CNTRL OUT           3


SWING CASE: XIAOJIN    POWERFLOW CASE: WW3                * * *  输 出 信 息  * * *                            Date: 2019-04-05

 
 
 * 计算过程中的监视曲线数据列表
 
   时间                发电机最大相对功角                    最低节点电压              最高节点电压              最低节点频率              最高节点频率 
               发电机1         发电机2        角度         节  点      电压          节  点      电压          节  点      频率          节  点      频率 
    0.0    广金10    10.0  等值     220.0     72.01     木龙10A   10.0  0.8237     广金10    10.0  1.0700     中马63     6.3    50.0     中马63     6.3    50.0 
    0.0    广金10    10.0  等值     220.0     72.01     木龙10A   10.0  0.8237     广金10    10.0  1.0700     中马63     6.3    50.0     中马63     6.3    50.0 
    0.5    广金10    10.0  等值     220.0     72.01     木龙10A   10.0  0.8237     广金10    10.0  1.0700     等值     220.0    50.0     小南海04   0.4    50.0 
    1.0    广金10    10.0  等值     220.0     72.01     木龙10A   10.0  0.8237     广金10    10.0  1.0700     等值     220.0    50.0     小南海04   0.4    50.0 
    1.5    广金10    10.0  等值     220.0     72.01     木龙10A   10.0  0.8237     广金10    10.0  1.0700     等值     220.0    50.0     小南海04   0.4    50.0 
    2.0    广金10    10.0  等值     220.0     72.01     木龙10A   10.0  0.8237     广金10    10.0  1.0700     等值     220.0    50.0     小南海04   0.4    50.0 
    2.5    广金10    10.0  等值     220.0     72.01     木龙10A   10.0  0.8237     广金10    10.0  1.0700     等值     220.0    50.0     美兴04     0.4    50.0 
    3.0    广金10    10.0  等值     220.0     72.01     木龙10A   10.0  0.8237     广金10    10.0  1.0700     等值     220.0    50.0     猛固103   10.0    50.0 
    3.5    广金10    10.0  等值     220.0     72.01     木龙10A   10.0  0.8237     广金10    10.0  1.0700     等值     220.0    50.0     结马63     6.3    50.0 
    4.0    广金10    10.0  等值     220.0     72.01     木龙10A   10.0  0.8237     广金10    10.0  1.0700     等值     220.0    50.0     中马63     6.3    50.0 
    4.5    广金10    10.0  等值     220.0     72.01     木龙10A   10.0  0.8237     广金10    10.0  1.0700     等值     220.0    50.0     结马63     6.3    50.0 
    5.0    广金10    10.0  等值     220.0     72.01     木龙10A   10.0  0.8237     广金10    10.0  1.0700     等值     220.0    50.0     中马63     6.3    50.0 
    5.5    广金10    10.0  等值     220.0     72.01     木龙10A   10.0  0.8237     广金10    10.0  1.0700     等值     220.0    50.0     中马63     6.3    50.0 
    6.0    广金10    10.0  等值     220.0     72.01     木龙10A   10.0  0.8237     广金10    10.0  1.0700     等值     220.0    50.0     中马63     6.3    50.0 
    6.5    广金10    10.0  等值     220.0     72.01     木龙10A   10.0  0.8237     广金10    10.0  1.0700     等值     220.0    50.0     中马63     6.3    50.0 
    7.0    广金10    10.0  等值     220.0     72.01     木龙10A   10.0  0.8237     广金10    10.0  1.0700     等值     220.0    50.0     中马63     6.3    50.0 
    7.5    广金10    10.0  等值     220.0     72.01     木龙10A   10.0  0.8237     广金10    10.0  1.0700     等值     220.0    50.0     中马63     6.3    50.0 
    8.0    广金10    10.0  等值     220.0     72.01     木龙10A   10.0  0.8237     广金10    10.0  1.0700     等值     220.0    50.0     中马63     6.3    50.0 
    8.5    广金10    10.0  等值     220.0     72.01     木龙10A   10.0  0.8237     广金10    10.0  1.0700     等值     220.0    50.0     中马63     6.3    50.0 
    9.0    广金10    10.0  等值     220.0     72.01     木龙10A   10.0  0.8237     广金10    10.0  1.0700     等值     220.0    50.0     结马63     6.3    50.0 
    9.5    广金10    10.0  等值     220.0     72.01     木龙10A   10.0  0.8237     广金10    10.0  1.0700     等值     220.0    50.0     中马63     6.3    50.0 
   10.0    广金10    10.0  等值     220.0     72.01     木龙10A   10.0  0.8237     广金10    10.0  1.0700     等值     220.0    50.0     木龙10A   10.0    50.0 
   10.0    广金10    10.0  等值     220.0     72.01     小金11K  110.0  0.0000     广金10    10.0  1.0373     等值     220.0    50.0     木龙10A   10.0    50.0 
   10.5    广金10    10.0  等值     220.0     72.01     小金11K  110.0  0.0000     广金10    10.0  1.0324     木龙10A   10.0    49.9     中马63     6.3    50.3 
   11.0    广金10    10.0  等值     220.0     72.01     小金11K  110.0  0.0000     广金10    10.0  1.0280     木龙10A   10.0    49.9     中马63     6.3    50.3 
   11.5    广金10    10.0  等值     220.0     72.00     小金11K  110.0  0.0000     广金10    10.0  1.0242     木龙10A   10.0    49.9     猛固101   10.0    50.3 
   12.0    广金10    10.0  等值     220.0     71.98     小金11K  110.0  0.0000     广金10    10.0  1.0211     木龙10A   10.0    49.9     猛固101   10.0    50.3 
   12.5    广金10    10.0  等值     220.0     71.96     小金11K  110.0  0.0000     广金10    10.0  1.0184     木龙10A   10.0    49.9     猛固101   10.0    50.4 
   13.0    广金10    10.0  等值     220.0     71.93     小金11K  110.0  0.0000     广金10    10.0  1.0163     木龙10A   10.0    49.9     猛固101   10.0    50.4 
   13.5    广金10    10.0  等值     220.0     71.90     小金11K  110.0  0.0000     广金10    10.0  1.0147     木龙10A   10.0    50.0     猛固101   10.0    50.4 
   14.0    广金10    10.0  等值     220.0     71.86     小金11K  110.0  0.0000     广金10    10.0  1.0135     木龙10A   10.0    50.0     猛固101   10.0    50.5 
   14.5    广金10    10.0  等值     220.0     71.81     小金11K  110.0  0.0000     广金10    10.0  1.0126     木龙10A   10.0    50.0     猛固101   10.0    50.5 
   15.0    广金10    10.0  等值     220.0     71.76     小金11K  110.0  0.0000     广金10    10.0  1.0121     木龙10A   10.0    50.0     猛固101   10.0    50.5 
   15.0    广金10    10.0  等值     220.0     71.76     宅垄10    10.0  0.6470     广金10    10.0  1.0372     木龙10A   10.0    50.0     猛固101   10.0    50.5 
   15.5    广金10    10.0  等值     220.0     71.70     宅垄10    10.0  0.6750     广金10    10.0  1.0416     中环B04    0.4    49.7     木龙10A   10.0    50.2 
   16.0    广金10    10.0  等值     220.0     71.64     木龙10A   10.0  0.6967     广金10    10.0  1.0461     中环B04    0.4    49.6     木龙10A   10.0    50.1 
   16.5    广金10    10.0  等值     220.0     71.58     木龙10A   10.0  0.7060     广金10    10.0  1.0503     中环B04    0.4    49.9     木龙10A   10.0    50.1 
   17.0    广金10    10.0  等值     220.0     71.52     木龙10A   10.0  0.7150     广金10    10.0  1.0542     等值     220.0    50.0     猛固103   10.0    50.1 
   17.5    猛固101   10.0  等值     220.0     72.19     木龙10A   10.0  0.7237     广金10    10.0  1.0579     等值     220.0    50.0     猛固103   10.0    50.1 
   18.0    猛固101   10.0  等值     220.0     73.72     木龙10A   10.0  0.7323     广金10    10.0  1.0613     等值     220.0    50.0     猛固103   10.0    50.1 
   18.5    猛固101   10.0  等值     220.0     75.14     木龙10A   10.0  0.7409     广金10    10.0  1.0645     小南海04   0.4    49.9     木龙10A   10.0    50.1 
   19.0    猛固101   10.0  等值     220.0     76.42     木龙10A   10.0  0.7492     广金10    10.0  1.0675     小南海04   0.4    49.9     木龙10A   10.0    50.1 
   19.5    猛固101   10.0  等值     220.0     77.56     木龙10A   10.0  0.7572     广金10    10.0  1.0702     小南海04   0.4    50.0     木龙10A   10.0    50.0 
   20.0    猛固101   10.0  等值     220.0     78.53     木龙10A   10.0  0.7647     广金10    10.0  1.0727     小南海04   0.4    50.0     木龙10A   10.0    50.0 
   20.5    猛固101   10.0  等值     220.0     79.33     木龙10A   10.0  0.7719     广金10    10.0  1.0749     宅垄10    10.0    50.0     木龙10A   10.0    50.0 
   21.0    猛固101   10.0  等值     220.0     79.95     木龙10A   10.0  0.7786     广金10    10.0  1.0769     小南海04   0.4    50.0     木龙10A   10.0    50.0 
   21.5    猛固101   10.0  等值     220.0     80.37     木龙10A   10.0  0.7848     广金10    10.0  1.0787     小南海04   0.4    50.0     木龙10A   10.0    50.0 
   22.0    猛固101   10.0  等值     220.0     80.60     木龙10A   10.0  0.7907     广金10    10.0  1.0803     小南海04   0.4    50.0     木龙10A   10.0    50.0 
   22.5    猛固101   10.0  等值     220.0     80.63     木龙10A   10.0  0.7962     广金10    10.0  1.0817     小南海04   0.4    50.0     木龙10    10.0    50.0 
   23.0    猛固101   10.0  等值     220.0     80.46     木龙10A   10.0  0.8014     广金10    10.0  1.0830     小南海04   0.4    50.0     木龙10    10.0    50.0 
   23.5    猛固101   10.0  等值     220.0     80.10     木龙10A   10.0  0.8062     广金10    10.0  1.0842     猛固103   10.0    49.9     崇德04     6.3    50.0 
   24.0    猛固102   10.0  等值     220.0     79.57     木龙10A   10.0  0.8108     广金10    10.0  1.0852     猛固103   10.0    49.9     崇德04     6.3    50.0 
   24.5    猛固102   10.0  等值     220.0     78.87     木龙10A   10.0  0.8152     广金10    10.0  1.0861     猛固103   10.0    49.9     崇德04     6.3    50.0 
   25.0    猛固102   10.0  等值     220.0     77.99     木龙10A   10.0  0.8193     广金10    10.0  1.0870     猛固103   10.0    49.9     崇德04     6.3    50.0 
   25.5    猛固102   10.0  等值     220.0     76.94     木龙10A   10.0  0.8233     广金10    10.0  1.0877     猛固103   10.0    49.9     夹金6A     6.3    50.0 
   26.0    猛固102   10.0  等值     220.0     75.72     木龙10A   10.0  0.8270     广金10    10.0  1.0884     猛固103   10.0    49.9     夹金6A     6.3    50.0 
   26.5    猛固102   10.0  等值     220.0     74.36     木龙10A   10.0  0.8306     广金10    10.0  1.0890     猛固103   10.0    49.9     夹金6A     6.3    50.0 
   27.0    猛固102   10.0  等值     220.0     72.85     木龙10A   10.0  0.8340     广金10    10.0  1.0895     猛固103   10.0    49.9     夹金山63   6.3    50.0 
   27.5    广金10    10.0  等值     220.0     71.45     木龙10A   10.0  0.8373     广金10    10.0  1.0900     猛固103   10.0    49.8     夹金山63   6.3    50.0 
   28.0    广金10    10.0  等值     220.0     71.52     木龙10A   10.0  0.8404     广金10    10.0  1.0904     猛固103   10.0    49.8     夹金山63   6.3    50.0 
   28.5    广金10    10.0  等值     220.0     71.61     木龙10A   10.0  0.8433     广金10    10.0  1.0907     猛固103   10.0    49.8     夹金山63   6.3    50.0 
   29.0    广金10    10.0  等值     220.0     71.70     木龙10A   10.0  0.8461     广金10    10.0  1.0909     猛固103   10.0    49.8     夹金山63   6.3    50.0 
   29.5    广金10    10.0  等值     220.0     71.80     木龙10A   10.0  0.8486     广金10    10.0  1.0911     猛固103   10.0    49.8     夹金山63   6.3    50.0 
   30.0    广金10    10.0  等值     220.0     71.90     木龙10A   10.0  0.8510     广金10    10.0  1.0912     猛固103   10.0    49.8     夹金山63   6.3    50.0 
   30.5    广金10    10.0  等值     220.0     72.01     木龙10A   10.0  0.8532     广金10    10.0  1.0912     中马63     6.3    49.8     夹金山63   6.3    50.0 
   31.0    广金10    10.0  等值     220.0     72.12     木龙10A   10.0  0.8551     广金10    10.0  1.0911     中马63     6.3    49.8     夹金山63   6.3    50.0 
   31.5    广金10    10.0  等值     220.0     72.23     木龙10A   10.0  0.8569     广金10    10.0  1.0910     中马63     6.3    49.8     广金10    10.0    50.0 
   32.0    广金10    10.0  等值     220.0     72.34     木龙10A   10.0  0.8584     广金10    10.0  1.0908     中马63     6.3    49.8     广金10    10.0    50.0 
   32.5    广金10    10.0  等值     220.0     72.46     木龙10A   10.0  0.8598     广金10    10.0  1.0905     中马63     6.3    49.8     广金10    10.0    50.0 
   33.0    广金10    10.0  等值     220.0     72.56     木龙10A   10.0  0.8610     广金10    10.0  1.0902     中马63     6.3    49.8     等值     220.0    50.0 
   33.5    广金10    10.0  等值     220.0     72.67     木龙10A   10.0  0.8620     广金10    10.0  1.0898     中马63     6.3    49.8     等值     220.0    50.0 
   34.0    广金10    10.0  等值     220.0     72.77     木龙10A   10.0  0.8627     广金10    10.0  1.0893     中马63     6.3    49.8     等值     220.0    50.0 
   34.5    广金10    10.0  等值     220.0     72.86     木龙10A   10.0  0.8633     广金10    10.0  1.0888     中马63     6.3    49.8     等值     220.0    50.0 
   35.0    广金10    10.0  等值     220.0     72.94     木龙10A   10.0  0.8638     广金10    10.0  1.0882     中马63     6.3    49.8     等值     220.0    50.0 
   35.5    广金10    10.0  等值     220.0     73.01     木龙10A   10.0  0.8640     广金10    10.0  1.0876     中马63     6.3    49.9     等值     220.0    50.0 
   36.0    广金10    10.0  等值     220.0     73.07     木龙10A   10.0  0.8640     广金10    10.0  1.0869     中马63     6.3    49.9     等值     220.0    50.0 
   36.5    广金10    10.0  等值     220.0     73.12     木龙10A   10.0  0.8639     广金10    10.0  1.0862     中马63     6.3    49.9     等值     220.0    50.0 
   37.0    广金10    10.0  等值     220.0     73.16     木龙10A   10.0  0.8636     广金10    10.0  1.0854     何家桥63   6.3    49.9     等值     220.0    50.0 
   37.5    广金10    10.0  等值     220.0     73.17     木龙10A   10.0  0.8632     广金10    10.0  1.0846     何家桥63   6.3    49.9     等值     220.0    50.0 
   38.0    广金10    10.0  等值     220.0     73.18     木龙10A   10.0  0.8627     广金10    10.0  1.0838     何家桥63   6.3    49.9     等值     220.0    50.0 
   38.5    广金10    10.0  等值     220.0     73.17     木龙10A   10.0  0.8620     广金10    10.0  1.0829     何家桥63   6.3    49.9     等值     220.0    50.0 
   39.0    广金10    10.0  等值     220.0     73.13     木龙10A   10.0  0.8612     广金10    10.0  1.0820     木龙10A   10.0    49.9     等值     220.0    50.0 
   39.5    广金10    10.0  等值     220.0     73.09     木龙10A   10.0  0.8603     广金10    10.0  1.0811     木龙10A   10.0    49.9     等值     220.0    50.0 
   40.0    广金10    10.0  等值     220.0     73.02     木龙10A   10.0  0.8593     广金10    10.0  1.0803     木龙10A   10.0    49.9     等值     220.0    50.0 
   40.5    广金10    10.0  等值     220.0     72.93     木龙10A   10.0  0.8582     广金10    10.0  1.0794     木龙10A   10.0    49.9     等值     220.0    50.0 
   41.0    广金10    10.0  等值     220.0     72.83     木龙10A   10.0  0.8571     广金10    10.0  1.0785     木龙10A   10.0    49.9     等值     220.0    50.0 
   41.5    广金10    10.0  等值     220.0     72.70     木龙10A   10.0  0.8559     广金10    10.0  1.0776     木龙10A   10.0    49.9     猛固103   10.0    50.0 
   42.0    广金10    10.0  等值     220.0     72.56     木龙10A   10.0  0.8547     广金10    10.0  1.0768     木龙10A   10.0    49.9     猛固103   10.0    50.0 
   42.5    广金10    10.0  等值     220.0     72.40     木龙10A   10.0  0.8535     广金10    10.0  1.0759     木龙10A   10.0    49.9     猛固103   10.0    50.0 
   43.0    广金10    10.0  等值     220.0     72.22     木龙10A   10.0  0.8522     广金10    10.0  1.0751     木龙10A   10.0    49.9     猛固103   10.0    50.0 
   43.5    广金10    10.0  等值     220.0     72.03     木龙10A   10.0  0.8509     广金10    10.0  1.0743     海平63     6.3    49.9     猛固103   10.0    50.0 
   44.0    广金10    10.0  等值     220.0     71.81     木龙10A   10.0  0.8497     广金10    10.0  1.0735     广金10    10.0    49.9     猛固103   10.0    50.1 
   44.5    广金10    10.0  等值     220.0     71.59     木龙10A   10.0  0.8484     广金10    10.0  1.0728     广金10    10.0    49.9     猛固103   10.0    50.1 
   45.0    广金10    10.0  等值     220.0     71.35     木龙10A   10.0  0.8472     广金10    10.0  1.0721     广金10    10.0    49.9     猛固102   10.0    50.1 
   45.5    广金10    10.0  等值     220.0     71.09     木龙10A   10.0  0.8460     广金10    10.0  1.0714     广金10    10.0    49.9     猛固103   10.0    50.1 
   46.0    广金10    10.0  等值     220.0     70.83     木龙10A   10.0  0.8449     广金10    10.0  1.0708     广金10    10.0    49.9     猛固103   10.0    50.1 
   46.5    广金10    10.0  等值     220.0     70.55     木龙10A   10.0  0.8437     广金10    10.0  1.0702     广金10    10.0    49.9     猛固103   10.0    50.1 
   47.0    广金10    10.0  等值     220.0     70.26     木龙10A   10.0  0.8427     广金10    10.0  1.0697     广金10    10.0    49.9     猛固103   10.0    50.1 
   47.5    广金10    10.0  等值     220.0     69.97     木龙10A   10.0  0.8416     广金10    10.0  1.0691     夹金山63   6.3    49.9     中马63     6.3    50.1 
   48.0    广金10    10.0  等值     220.0     69.67     木龙10A   10.0  0.8407     广金10    10.0  1.0686     夹金山63   6.3    49.9     中马63     6.3    50.1 
   48.5    广金10    10.0  等值     220.0     69.37     木龙10A   10.0  0.8398     广金10    10.0  1.0682     夹金山63   6.3    49.9     中马63     6.3    50.1 
   49.0    广金10    10.0  等值     220.0     69.06     木龙10A   10.0  0.8389     广金10    10.0  1.0677     夹金山63   6.3    49.9     中马63     6.3    50.1 
   49.5    广金10    10.0  等值     220.0     68.75     木龙10A   10.0  0.8381     广金10    10.0  1.0673     夹金山63   6.3    49.9     中马63     6.3    50.1 
   50.0    广金10    10.0  等值     220.0     68.45     木龙10A   10.0  0.8373     广金10    10.0  1.0670     夹金山63   6.3    49.9     中马63     6.3    50.1 
   50.5    广金10    10.0  等值     220.0     68.14     木龙10A   10.0  0.8366     广金10    10.0  1.0667     夹金山63   6.3    49.9     中马63     6.3    50.1 
   51.0    广金10    10.0  等值     220.0     67.84     木龙10A   10.0  0.8360     广金10    10.0  1.0664     夹金山63   6.3    49.9     中马63     6.3    50.1 
   51.5    广金10    10.0  等值     220.0     67.55     木龙10A   10.0  0.8355     广金10    10.0  1.0661     夹金山63   6.3    49.9     中马63     6.3    50.1 
   52.0    广金10    10.0  等值     220.0     67.26     木龙10A   10.0  0.8350     广金10    10.0  1.0659     夹金山63   6.3    49.9     中马63     6.3    50.1 
   52.5    广金10    10.0  等值     220.0     66.98     木龙10A   10.0  0.8345     广金10    10.0  1.0657     夹金山63   6.3    49.9     中马63     6.3    50.1 
   53.0    广金10    10.0  等值     220.0     66.71     木龙10A   10.0  0.8342     广金10    10.0  1.0656     夹金6A     6.3    50.0     中马63     6.3    50.1 
   53.5    广金10    10.0  等值     220.0     66.45     木龙10A   10.0  0.8339     广金10    10.0  1.0655     夹金6A     6.3    50.0     中马63     6.3    50.1 
   54.0    广金10    10.0  等值     220.0     66.20     木龙10A   10.0  0.8336     广金10    10.0  1.0654     夹金6A     6.3    50.0     中马63     6.3    50.1 
   54.5    广金10    10.0  等值     220.0     65.97     木龙10A   10.0  0.8335     广金10    10.0  1.0653     夹金6A     6.3    50.0     中马63     6.3    50.1 
   55.0    广金10    10.0  等值     220.0     65.75     木龙10A   10.0  0.8334     广金10    10.0  1.0653     夹金6A     6.3    50.0     何家桥63   6.3    50.1 
   55.5    广金10    10.0  等值     220.0     65.54     木龙10A   10.0  0.8333     广金10    10.0  1.0653     夹金6A     6.3    50.0     何家桥63   6.3    50.1 
   56.0    广金10    10.0  等值     220.0     65.35     木龙10A   10.0  0.8333     广金10    10.0  1.0654     夹金6A     6.3    50.0     何家桥63   6.3    50.1 
   56.5    广金10    10.0  等值     220.0     65.18     木龙10A   10.0  0.8334     广金10    10.0  1.0655     夹金6A     6.3    50.0     何家桥63   6.3    50.1 
   57.0    广金10    10.0  等值     220.0     65.03     木龙10A   10.0  0.8334     广金10    10.0  1.0656     夹金6A     6.3    50.0     何家桥63   6.3    50.1 
   57.5    广金10    10.0  等值     220.0     64.90     木龙10A   10.0  0.8336     广金10    10.0  1.0658     夹金6A     6.3    50.0     何家桥63   6.3    50.1 
   58.0    广金10    10.0  等值     220.0     64.78     木龙10A   10.0  0.8338     广金10    10.0  1.0660     夹金6A     6.3    50.0     何家桥63   6.3    50.1 
   58.5    广金10    10.0  等值     220.0     64.69     木龙10A   10.0  0.8340     广金10    10.0  1.0662     夹金6A     6.3    50.0     美沃63     6.3    50.0 
   59.0    广金10    10.0  等值     220.0     64.62     木龙10A   10.0  0.8342     广金10    10.0  1.0664     夹金6A     6.3    50.0     三关63     6.3    50.1 
   59.5    广金10    10.0  等值     220.0     64.56     木龙10A   10.0  0.8345     广金10    10.0  1.0666     夹金6A     6.3    50.0     三关63     6.3    50.1 
   60.0    广金10    10.0  等值     220.0     64.53     木龙10A   10.0  0.8348     广金10    10.0  1.0669     等值     220.0    50.0     三关63     6.3    50.1 
   60.5    广金10    10.0  等值     220.0     64.52     木龙10A   10.0  0.8351     广金10    10.0  1.0672     等值     220.0    50.0     三关63     6.3    50.1 
   61.0    广金10    10.0  等值     220.0     64.52     木龙10A   10.0  0.8354     广金10    10.0  1.0675     猛固103   10.0    50.0     三关63     6.3    50.1 
   61.5    广金10    10.0  等值     220.0     64.55     木龙10A   10.0  0.8357     广金10    10.0  1.0679     猛固103   10.0    50.0     三关63     6.3    50.1 
   62.0    广金10    10.0  等值     220.0     64.60     木龙10A   10.0  0.8360     广金10    10.0  1.0682     猛固102   10.0    50.0     三关63     6.3    50.1 
   62.5    海平63     6.3  等值     220.0     64.91     木龙10A   10.0  0.8364     广金10    10.0  1.0686     猛固103   10.0    50.0     海平63     6.3    50.1 
   63.0    海平63     6.3  等值     220.0     65.42     木龙10A   10.0  0.8367     广金10    10.0  1.0689     猛固103   10.0    50.0     海平63     6.3    50.1 
   63.5    海平63     6.3  等值     220.0     65.95     木龙10A   10.0  0.8370     广金10    10.0  1.0693     猛固103   10.0    50.0     海平63     6.3    50.1 
   64.0    海平63     6.3  等值     220.0     66.49     木龙10A   10.0  0.8373     广金10    10.0  1.0697     中马63     6.3    50.0     海平63     6.3    50.1 
   64.5    海平63     6.3  等值     220.0     67.05     木龙10A   10.0  0.8376     广金10    10.0  1.0700     中马63     6.3    50.0     海平63     6.3    50.1 
   65.0    海平63     6.3  等值     220.0     67.61     木龙10A   10.0  0.8379     广金10    10.0  1.0704     中马63     6.3    50.0     海平63     6.3    50.1 
   65.5    海平63     6.3  等值     220.0     68.18     木龙10A   10.0  0.8381     广金10    10.0  1.0708     中马63     6.3    50.0     海平63     6.3    50.1 
   66.0    海平63     6.3  等值     220.0     68.76     木龙10A   10.0  0.8384     广金10    10.0  1.0712     中马63     6.3    50.0     海平63     6.3    50.1 
   66.5    海平63     6.3  等值     220.0     69.34     木龙10A   10.0  0.8386     广金10    10.0  1.0716     中马63     6.3    50.0     海平63     6.3    50.1 
   67.0    海平63     6.3  等值     220.0     69.91     木龙10A   10.0  0.8388     广金10    10.0  1.0719     中马63     6.3    50.0     夹金山63   6.3    50.1 
   67.5    海平63     6.3  等值     220.0     70.48     木龙10A   10.0  0.8389     广金10    10.0  1.0723     中马63     6.3    50.0     夹金山63   6.3    50.1 
   68.0    海平63     6.3  等值     220.0     71.04     木龙10A   10.0  0.8390     广金10    10.0  1.0726     中马63     6.3    50.0     夹金山63   6.3    50.1 
   68.5    海平63     6.3  等值     220.0     71.60     木龙10A   10.0  0.8391     广金10    10.0  1.0730     中马63     6.3    50.0     夹金山63   6.3    50.1 
   69.0    海平63     6.3  等值     220.0     72.14     木龙10A   10.0  0.8392     广金10    10.0  1.0733     中马63     6.3    50.0     夹金山63   6.3    50.1 
   69.5    海平63     6.3  等值     220.0     72.66     木龙10A   10.0  0.8392     广金10    10.0  1.0736     中马63     6.3    50.0     夹金山63   6.3    50.1 
   70.0    海平63     6.3  等值     220.0     73.17     木龙10A   10.0  0.8392     广金10    10.0  1.0739     何家桥63   6.3    50.0     夹金山63   6.3    50.1 
   70.5    海平63     6.3  等值     220.0     73.66     木龙10A   10.0  0.8391     广金10    10.0  1.0742     何家桥63   6.3    50.0     夹金山63   6.3    50.1 
   71.0    海平63     6.3  等值     220.0     74.13     木龙10A   10.0  0.8390     广金10    10.0  1.0745     何家桥63   6.3    50.0     夹金6A     6.3    50.1 
   71.5    海平63     6.3  等值     220.0     74.58     木龙10A   10.0  0.8389     广金10    10.0  1.0747     何家桥63   6.3    50.0     夹金6A     6.3    50.1 
   72.0    海平63     6.3  等值     220.0     75.00     木龙10A   10.0  0.8387     广金10    10.0  1.0750     何家桥63   6.3    50.0     夹金6A     6.3    50.1 
   72.5    海平63     6.3  等值     220.0     75.40     木龙10A   10.0  0.8385     广金10    10.0  1.0752     何家桥63   6.3    50.0     夹金6A     6.3    50.1 
   73.0    海平63     6.3  等值     220.0     75.77     木龙10A   10.0  0.8382     广金10    10.0  1.0754     何家桥63   6.3    50.0     夹金6A     6.3    50.1 
   73.5    海平63     6.3  等值     220.0     76.11     木龙10A   10.0  0.8379     广金10    10.0  1.0755     何家桥63   6.3    50.0     夹金6A     6.3    50.1 
   74.0    海平63     6.3  等值     220.0     76.42     木龙10A   10.0  0.8376     广金10    10.0  1.0757     何家桥63   6.3    50.0     夹金6A     6.3    50.1 
   74.5    海平63     6.3  等值     220.0     76.70     木龙10A   10.0  0.8373     广金10    10.0  1.0758     何家桥63   6.3    50.0     夹金6A     6.3    50.1 
   75.0    海平63     6.3  等值     220.0     76.95     木龙10A   10.0  0.8369     广金10    10.0  1.0759     何家桥63   6.3    50.0     夹金6A     6.3    50.1 
   75.5    海平63     6.3  等值     220.0     77.17     木龙10A   10.0  0.8364     广金10    10.0  1.0760     何家桥63   6.3    50.0     夹金6A     6.3    50.1 
   76.0    海平63     6.3  等值     220.0     77.36     木龙10A   10.0  0.8360     广金10    10.0  1.0760     何家桥63   6.3    50.0     夹金6A     6.3    50.1 
   76.5    海平63     6.3  等值     220.0     77.52     木龙10A   10.0  0.8355     广金10    10.0  1.0761     何家桥63   6.3    50.0     夹金6A     6.3    50.1 
   77.0    海平63     6.3  等值     220.0     77.64     木龙10A   10.0  0.8350     广金10    10.0  1.0761     何家桥63   6.3    50.0     夹金6A     6.3    50.1 
   77.5    海平63     6.3  等值     220.0     77.74     木龙10A   10.0  0.8344     广金10    10.0  1.0760     何家桥63   6.3    50.0     夹金6A     6.3    50.1 
   78.0    海平63     6.3  等值     220.0     77.81     木龙10A   10.0  0.8338     广金10    10.0  1.0760     何家桥63   6.3    50.0     夹金6A     6.3    50.1 
   78.5    海平63     6.3  等值     220.0     77.84     木龙10A   10.0  0.8333     广金10    10.0  1.0759     何家桥63   6.3    50.0     夹金6A     6.3    50.1 
   79.0    海平63     6.3  等值     220.0     77.85     木龙10A   10.0  0.8326     广金10    10.0  1.0759     何家桥63   6.3    50.0     夹金6A     6.3    50.1 
   79.5    海平63     6.3  等值     220.0     77.84     木龙10A   10.0  0.8320     广金10    10.0  1.0757     何家桥63   6.3    50.0     夹金6A     6.3    50.1 
   80.0    海平63     6.3  等值     220.0     77.79     木龙10A   10.0  0.8314     广金10    10.0  1.0756     木坡102   10.0    50.0     夹金6A     6.3    50.1 
   80.5    海平63     6.3  等值     220.0     77.72     木龙10A   10.0  0.8307     广金10    10.0  1.0755     木坡102   10.0    50.0     夹金6A     6.3    50.1 
   81.0    海平63     6.3  等值     220.0     77.63     木龙10A   10.0  0.8301     广金10    10.0  1.0753     木坡102   10.0    50.0     夹金6A     6.3    50.1 
   81.5    海平63     6.3  等值     220.0     77.52     木龙10A   10.0  0.8294     广金10    10.0  1.0751     木坡102   10.0    50.0     夹金6A     6.3    50.1 
   82.0    海平63     6.3  等值     220.0     77.39     木龙10A   10.0  0.8288     广金10    10.0  1.0749     木坡102   10.0    50.0     夹金6A     6.3    50.1 
   82.5    广金10    10.0  等值     220.0     77.25     木龙10A   10.0  0.8281     广金10    10.0  1.0747     木坡10    10.0    50.0     夹金6A     6.3    50.1 
   83.0    广金10    10.0  等值     220.0     77.58     木龙10A   10.0  0.8274     广金10    10.0  1.0745     木坡102   10.0    50.0     夹金6A     6.3    50.1 
   83.5    广金10    10.0  等值     220.0     77.89     木龙10A   10.0  0.8268     广金10    10.0  1.0742     木坡102   10.0    50.0     夹金6A     6.3    50.1 
   84.0    广金10    10.0  等值     220.0     78.19     木龙10A   10.0  0.8261     广金10    10.0  1.0739     三关63     6.3    50.0     广金10    10.0    50.1 
   84.5    广金10    10.0  等值     220.0     78.47     木龙10A   10.0  0.8255     广金10    10.0  1.0736     三关63     6.3    50.0     广金10    10.0    50.1 
   85.0    广金10    10.0  等值     220.0     78.74     木龙10A   10.0  0.8248     广金10    10.0  1.0733     三关63     6.3    50.0     广金10    10.0    50.1 
   85.5    广金10    10.0  等值     220.0     78.99     木龙10A   10.0  0.8242     广金10    10.0  1.0730     河口63     6.3    50.0     广金10    10.0    50.0 
   86.0    广金10    10.0  等值     220.0     79.23     木龙10A   10.0  0.8236     广金10    10.0  1.0727     河口63     6.3    50.0     广金10    10.0    50.0 
   86.5    广金10    10.0  等值     220.0     79.45     木龙10A   10.0  0.8230     广金10    10.0  1.0724     河口63     6.3    50.0     广金10    10.0    50.0 
   87.0    广金10    10.0  等值     220.0     79.66     木龙10A   10.0  0.8225     广金10    10.0  1.0720     河口63     6.3    50.0     广金10    10.0    50.0 
   87.5    广金10    10.0  等值     220.0     79.84     木龙10A   10.0  0.8219     广金10    10.0  1.0717     河口63     6.3    50.0     广金10    10.0    50.0 
   88.0    广金10    10.0  等值     220.0     80.01     木龙10A   10.0  0.8214     广金10    10.0  1.0713     河口63     6.3    50.0     广金10    10.0    50.0 
   88.5    广金10    10.0  等值     220.0     80.15     木龙10A   10.0  0.8209     广金10    10.0  1.0710     河口63     6.3    50.0     广金10    10.0    50.0 
...